Input Parameters:
   integrator                     = sd
   tinit                          = 0
   dt                             = 0.001
   nsteps                         = 200000000
   init-step                      = 0
   simulation-part                = 1
   comm-mode                      = Angular
   nstcomm                        = 10
   bd-fric                        = 0
   ld-seed                        = -2138092852
   emtol                          = 10
   emstep                         = 0.01
   niter                          = 20
   fcstep                         = 0
   nstcgsteep                     = 1000
   nbfgscorr                      = 10
   rtpi                           = 0.05
   nstxout                        = 100000
   nstvout                        = 100000
   nstfout                        = 0
   nstlog                         = 1000
   nstcalcenergy                  = 10
   nstenergy                      = 1000
   nstxout-compressed             = 1000
   compressed-x-precision         = 1000
   cutoff-scheme                  = Group
   nstlist                        = 10
   ns-type                        = Grid
   pbc                            = no
   periodic-molecules             = false
   verlet-buffer-tolerance        = 0.005
   rlist                          = 1
   coulombtype                    = User
   coulomb-modifier               = Potential-shift
   rcoulomb-switch                = 0
   rcoulomb                       = 0.9
   epsilon-r                      = 1
   epsilon-rf                     = inf
   vdw-type                       = Cut-off
   vdw-modifier                   = Force-switch
   rvdw-switch                    = 0.7
   rvdw                           = 0.9
   DispCorr                       = No
   table-extension                = 1
   fourierspacing                 = 0.12
   fourier-nx                     = 0
   fourier-ny                     = 0
   fourier-nz                     = 0
   pme-order                      = 4
   ewald-rtol                     = 1e-05
   ewald-rtol-lj                  = 0.001
   lj-pme-comb-rule               = Geometric
   ewald-geometry                 = 0
   epsilon-surface                = 0
   implicit-solvent               = No
   gb-algorithm                   = Still
   nstgbradii                     = 1
   rgbradii                       = 1
   gb-epsilon-solvent             = 80
   gb-saltconc                    = 0
   gb-obc-alpha                   = 1
   gb-obc-beta                    = 0.8
   gb-obc-gamma                   = 4.85
   gb-dielectric-offset           = 0.009
   sa-algorithm                   = Ace-approximation
   sa-surface-tension             = 2.05016
   tcoupl                         = No
   nsttcouple                     = -1
   nh-chain-length                = 0
   print-nose-hoover-chain-variables = false
   pcoupl                         = No
   pcoupltype                     = Isotropic
   nstpcouple                     = -1
   tau-p                          = 2
   compressibility (3x3):
      compressibility[    0]={ 0.00000e+00,  0.00000e+00,  0.00000e+00}
      compressibility[    1]={ 0.00000e+00,  0.00000e+00,  0.00000e+00}
      compressibility[    2]={ 0.00000e+00,  0.00000e+00,  0.00000e+00}
   ref-p (3x3):
      ref-p[    0]={ 0.00000e+00,  0.00000e+00,  0.00000e+00}
      ref-p[    1]={ 0.00000e+00,  0.00000e+00,  0.00000e+00}
      ref-p[    2]={ 0.00000e+00,  0.00000e+00,  0.00000e+00}
   refcoord-scaling               = No
   posres-com (3):
      posres-com[0]= 0.00000e+00
      posres-com[1]= 0.00000e+00
      posres-com[2]= 0.00000e+00
   posres-comB (3):
      posres-comB[0]= 0.00000e+00
      posres-comB[1]= 0.00000e+00
      posres-comB[2]= 0.00000e+00
   QMMM                           = false
   QMconstraints                  = 0
   QMMMscheme                     = 0
   MMChargeScaleFactor            = 1
qm-opts:
   ngQM                           = 0
   constraint-algorithm           = Lincs
   continuation                   = false
   Shake-SOR                      = false
   shake-tol                      = 0.0001
   lincs-order                    = 6
   lincs-iter                     = 2
   lincs-warnangle                = 30
   nwall                          = 0
   wall-type                      = 9-3
   wall-r-linpot                  = -1
   wall-atomtype[0]               = -1
   wall-atomtype[1]               = -1
   wall-density[0]                = 0
   wall-density[1]                = 0
   wall-ewald-zfac                = 3
   pull                           = false
   awh                            = false
   rotation                       = false
   interactiveMD                  = false
   disre                          = No
   disre-weighting                = Conservative
   disre-mixed                    = false
   dr-fc                          = 1000
   dr-tau                         = 0
   nstdisreout                    = 100
   orire-fc                       = 0
   orire-tau                      = 0
   nstorireout                    = 100
   free-energy                    = no
   cos-acceleration               = 0
   deform (3x3):
      deform[    0]={ 0.00000e+00,  0.00000e+00,  0.00000e+00}
      deform[    1]={ 0.00000e+00,  0.00000e+00,  0.00000e+00}
      deform[    2]={ 0.00000e+00,  0.00000e+00,  0.00000e+00}
   simulated-tempering            = false
   swapcoords                     = no
   userint1                       = 0
   userint2                       = 0
   userint3                       = 0
   userint4                       = 0
   userreal1                      = 0
   userreal2                      = 0
   userreal3                      = 0
   userreal4                      = 0
   applied-forces:
     electric-field:
       x:
         E0                       = 0
         omega                    = 0
         t0                       = 0
         sigma                    = 0
       y:
         E0                       = 0
         omega                    = 0
         t0                       = 0
         sigma                    = 0
       z:
         E0                       = 0
         omega                    = 0
         t0                       = 0
         sigma                    = 0
grpopts:
   nrdf:         187
   ref-t:         300
   tau-t:           1
annealing:          No
annealing-npoints:           0
   acc:	           0           0           0
   nfreeze:           N           N           N
   energygrp-flags[  0]: 0

NOTE: This file uses the deprecated 'group' cutoff_scheme. This will be
removed in a future release when 'verlet' supports all interaction forms.

System total charge: 0.080
Potential shift: LJ r^-12: -1.053e+01 r^-6: -3.461e+00
Table routines are used for coulomb: true
Table routines are used for vdw:     true
Cut-off's:   NS: 1   Coulomb: 0.9   LJ: 0.9
Read user tables from ../inp_files/table-eef1-coul.xvg with 2001 data points.
Tabscale = 500 points/nm
Generated table with 1000 data points for LJ6Shift.
Tabscale = 500 points/nm
Generated table with 1000 data points for LJ12Shift.
Tabscale = 500 points/nm
Read user tables from ../inp_files/table-eef1-coul.xvg with 2001 data points.
Tabscale = 500 points/nm
Generated table with 2001 data points for 1-4 LJ6.
Tabscale = 500 points/nm
Generated table with 2001 data points for 1-4 LJ12.
Tabscale = 500 points/nm

Initializing LINear Constraint Solver

The number of constraints is 95
Intra-simulation communication will occur every 10 steps.
Center of mass motion removal mode is Angular
We have the following groups for center of mass motion removal:
  0:  rest

There are: 96 Atoms

Constraining the starting coordinates (step 0)

Constraining the coordinates at t0-dt (step 0)
RMS relative constraint deviation after constraining: 5.83e-07
Initial temperature: 311.604 K

PLUMED: PLUMED is starting
PLUMED: Version: 2.5.2 (git: Unknown) compiled on Jul 27 2019 at 16:38:52
PLUMED: Please cite this paper when using PLUMED [1]
PLUMED: For further information see the PLUMED web page at http://www.plumed.org
PLUMED: Root: /Users/ajaymuralidharan/opt/miniconda2/envs/lugano-tutorials/lib/plumed
PLUMED: For installed feature, see /Users/ajaymuralidharan/opt/miniconda2/envs/lugano-tutorials/lib/plumed/src/config/config.txt
PLUMED: Molecular dynamics engine: gromacs
PLUMED: Precision of reals: 4
PLUMED: Running over 1 node
PLUMED: Number of threads: 1
PLUMED: Cache line size: 512
PLUMED: Number of atoms: 96
PLUMED: File suffix:
PLUMED: FILE: ../inp_files/plumed-eef1.dat
PLUMED: Action MOLINFO
PLUMED:   with label @0
PLUMED:   pdb file named structure.pdb contains 1 chains
PLUMED:   chain named   contains residues 1 to 10 and atoms 1 to 93
PLUMED: Action WHOLEMOLECULES
PLUMED:   with label @1
PLUMED:   with stride 1
PLUMED:   atoms in entity 0 : 1 2 3 4 5 6 7 8 9 10 11 12 13 14 15 16 17 18 19 20 21 22 23 24 25 26 27 28 29 30 31 32 33 34 35 36 37 38 39 40 41 42 43 44 45 46 47 48 49 50 51 52 53 54 55 56 57 58 59 60 61 62 63 64 65 66 67 68 69 70 71 72 73 74 75 76 77 78 79 80 81 82 83 84 85 86 87 88 89 90 91 92 93 94 95 96
PLUMED: Action GROUP
PLUMED:   with label protein-h
PLUMED:   importing group 'Protein-H' from index file index.ndx
PLUMED:   list of atoms:
PLUMED:  1 3 6 7 8 10 13 14 15 17 19 22 25 26 27 28 29 30 32 35 36 37 39 42 43
PLUMED:  44 46 49 50 51 53 56 57 58 60 63 64 65 67 69 72 75 78 81 85 86 87 89 92 93
PLUMED: Action EEFSOLV
PLUMED:   with label solv
PLUMED:   Bibliography [2]
PLUMED:   MOLINFO DATA found, using proper atom names
PLUMED: Action BIASVALUE
PLUMED:   with label bias
PLUMED:   with arguments solv
PLUMED:   added component to this action:  bias.bias
PLUMED:   added component to this action:  bias.solv_bias
PLUMED: Action PRINT
PLUMED:   with label @5
PLUMED:   with stride 200
PLUMED:   with arguments bias.bias
PLUMED:   on file ENERGY
PLUMED:   with format  %f
PLUMED: Action ENDPLUMED
PLUMED:   with label @6
PLUMED: END FILE: ../inp_files/plumed-eef1.dat
PLUMED: Timestep: 0.001000
PLUMED: KbT: 2.494339
PLUMED: Relevant bibliography:
PLUMED:   [1] Tribello, Bonomi, Branduardi, Camilloni, and Bussi, Comput. Phys. Commun. 185, 604 (2014)
PLUMED:   [2] Lazaridis T, Karplus M, Proteins Struct. Funct. Genet. 35, 133 (1999)
PLUMED: Please read and cite where appropriate!
PLUMED: Finished setup
Started mdrun on rank 0 Fri Jul 24 19:35:13 2020
           Step           Time
              0        0.00000

   Energies (kJ/mol)
            U-B    Proper Dih.  Improper Dih.      CMAP Dih.          LJ-14
    4.37662e+01    1.27585e+02    8.43466e-01   -1.10990e+01    1.14442e+01
     Coulomb-14        LJ (SR)   Coulomb (SR)      Potential    Kinetic En.
    8.24783e+02   -4.35774e+01   -6.77062e+02    2.76684e+02    2.42070e+02
    5.18754e+02    3.11383e+02    0.00000e+00    6.10919e-07

	<====  A V E R A G E S  ====>

	Statistics over 22231 steps using 2224 frames

   Energies (kJ/mol)
            U-B    Proper Dih.  Improper Dih.      CMAP Dih.          LJ-14
    1.75478e+02    1.49367e+02    1.77760e+01   -4.41520e+01    3.47340e+01
     Coulomb-14        LJ (SR)   Coulomb (SR)      Potential    Kinetic En.
    7.92927e+02   -3.80009e+01   -6.17106e+02    4.71022e+02    2.17940e+02
   Total Energy    Temperature Pressure (bar)   Constr. rmsd
    6.88963e+02    2.80344e+02    0.00000e+00    0.00000e+00

   Total Virial (kJ/mol)
    1.07142e+01   -8.73935e+00   -1.27710e+00
   -8.73934e+00    2.16579e+01   -1.04533e+00
   -6.83034e-01   -3.95205e-01    4.09302e+01

   Pressure (bar)
    0.00000e+00    0.00000e+00    0.00000e+00
    0.00000e+00    0.00000e+00    0.00000e+00
    0.00000e+00    0.00000e+00    0.00000e+00
